/*--------------------------------*- C++ -*----------------------------------*\
  =========                 |
  \\      /  F ield         | OpenFOAM: The Open Source CFD Toolbox
   \\    /   O peration     | Website:  https://openfoam.org
    \\  /    A nd           | Version:  9
     \\/     M anipulation  |
\*---------------------------------------------------------------------------*/
FoamFile
{
    format      ascii;
    class       dictionary;
    object      fvSolution;
}
// * * * * * * * * * * * * * * * * * * * * * * * * * * * * * * * * * * * * * //

solvers
{
    p
    {
        solver          GAMG;
        smoother        GaussSeidel;
        tolerance       1e-12;
        relTol          0.01;
    }

    "(U|k|omega|epsilon)"
    {
        solver          smoothSolver;
        smoother        symGaussSeidel;
        tolerance       1e-12;
        relTol          0.01;
    }
}

SIMPLE
{
    residualControl
    {
        p               1e-12;
        U               1e-12;
        "(k|omega|epsilon)" 1e-12;
    }
    nNonOrthogonalCorrectors 0;
    pRefCell        0;
    pRefValue       0;

}

potentialFlow
{
    nNonOrthogonalCorrectors 10;
}

relaxationFactors
{
    fields
    {
        p               0.5; // was 0.3
    }
    equations
    {
        U               0.5; // was 0.7
        "(k|omega|epsilon).*" 0.5; // was 0.7 and then 0.3
    }
}

// ************************************************************************* //


