/*--------------------------------*- C++ -*----------------------------------*\
  =========                 |
  \\      /  F ield         | OpenFOAM: The Open Source CFD Toolbox
   \\    /   O peration     | Website:  https://openfoam.org
    \\  /    A nd           | Version:  9
     \\/     M anipulation  |
\*---------------------------------------------------------------------------*/
FoamFile
{
    format      ascii;
    class       volScalarField;
    object      epsilon;
}
// * * * * * * * * * * * * * * * * * * * * * * * * * * * * * * * * * * * * * //

epsilonInlet  3; // was 0.03/ Cmu^0.75 * k^1.5 / L ; L =10

dimensions      [0 2 -3 0 0 0 0];

internalField   uniform $epsilonInlet;

boundaryField
{
    inlet
    {
        type            atmBoundaryLayerInletEpsilon;
        flowDir         (0.7071 0.7071 0);
        zDir            (0 0 1);
        Uref            10;
        Zref            518;
        z0              uniform 2;
        zGround         uniform 0;
        
        // Optional (inherited) entries (unmodifiable)
	kappa           0.41;
	Cmu             0.09;
	initABL         true;
	phi             phi;
	C1              0.0;
	C2              1.0;

    	// Conditional mandatory (inherited) entries (runtime modifiable)
    	//value           uniform 0;    // when initABL=false  
    }

    outlet
    {
        type            zeroGradient;
    }

    ground
    {
        type            epsilonWallFunction;
        value           uniform $epsilonInlet;
    }

    upperWall
    {
        type            epsilonWallFunction;
        value           uniform $epsilonInlet;
    }

    frontAndBack
    {
        type            epsilonWallFunction;
        value           uniform $epsilonInlet;
    }
    
    buildings
    {
        type            epsilonWallFunction;
        value           uniform $epsilonInlet;
    }    

    #includeEtc "caseDicts/setConstraintTypes"
}

// ************************************************************************* //



